/*--------------------------------*- C++ -*----------------------------------*\
| =========                 |                                                 |
| \\      /  Field          | OpenFOAM: The Open Source CFD Toolbox           |
|  \\    /   Operation      | Version:  11                                    |
|   \\  /    And            |                                                 |
|    \\/     Manipulation   |                                                 |
\*---------------------------------------------------------------------------*/

FoamFile
{
    version     2.0;
    format      ascii;
    class       volScalarField;
    location    "0";
    object      k;
}

dimensions      [0 2 -2 0 0 0 0];

internalField   uniform 0.03375;

boundaryField
{
    inlet
    {
        type            fixedValue;
        value           uniform 0.03375;
    }

    outlet
    {
        type            zeroGradient;
    }

    wall
    {
        type            kqRWallFunction;
        value           uniform 0;
    }
}

// ************************************************************************* //
